OPT_V9/Results/My_campus_w_initial_sub_3_active_27_03_13_05/powerflow_results_t5.txt
Pandapower Network Debug Info
==================================================

BUS:
       vm_pu  va_degree      p_mw    q_mvar
0   1.063328  -0.073298 -0.090117 -0.073309
1   1.197068  -9.598807 -0.071334 -0.286816
2   0.964896  -7.310788  0.091277 -0.021229
3   1.037252   4.900659 -0.146030  0.006469
4   0.994203   0.934796 -0.007672  0.002961
5   1.025408  -0.988956 -0.013072 -0.032234
6   1.186939  -8.426834  0.004682 -0.196188
7   0.965052  -3.488054  0.091713 -0.009283
8   0.961555   5.044447 -0.020331  0.056461
9   0.998161   0.013735 -0.001028  0.716733
10  0.997691  -0.030733  1.006913  0.377818
11  0.997626   0.035524 -0.118472  1.011090
12  0.992958   0.101060 -0.208309  1.005095
13  0.992193   0.070989  0.744047  1.011609
14  0.992732   0.098405  0.015512  1.012190
15  0.998545   0.003674  0.000000  0.000000
16  0.998546   0.003498  0.000000  0.000000
17  0.999995   0.000721  0.000000  0.000000
18  0.999995   0.000722  0.000000  0.000000
19  0.993449   0.080370  0.000000  0.000000
20  0.993448   0.080293  0.000000  0.000000
21  0.999994   0.000779  0.000000  0.000000
22  0.999994   0.000780  0.000000  0.000000
23  1.000000   0.000000 -1.391872 -4.727931
24  0.999997   0.000677  0.000000  0.000000
--------------------------------------------------

LINE:
    p_from_mw  q_from_mvar   p_to_mw  q_to_mvar         pl_mw       ql_mvar  i_from_ka   i_to_ka      i_ka  vm_from_pu  va_from_degree  vm_to_pu  va_to_degree  loading_percent
0    0.743467     1.805082 -0.742294  -1.802500  1.173477e-03  2.581378e-03   0.075140  0.075140  0.075140    0.999997        0.000677  0.998545      0.003674        14.177409
1    0.000010     0.001000 -0.000010  -0.001000  7.925264e-10  1.743375e-09   0.000038  0.000038  0.000038    0.999997        0.000677  0.999995      0.000721         0.007262
2    0.648314     2.916850 -0.640038  -2.898644  8.276035e-03  1.820537e-02   0.115010  0.115010  0.115010    0.999997        0.000677  0.993449      0.080370        21.699949
3    0.000010     0.001000 -0.000010  -0.001000  1.814959e-09  2.656038e-09   0.000038  0.000038  0.000038    0.999997        0.000677  0.999994      0.000779         0.011321
4   -0.000903     0.717009  0.001028  -0.716733  1.255106e-04  2.760942e-04   0.027638  0.027638  0.027638    0.998545        0.003674  0.998161      0.013735         5.214704
5    1.007548     0.378746 -1.006913  -0.377818  6.344389e-04  9.284472e-04   0.041490  0.041490  0.041490    0.998545        0.003674  0.997691     -0.030733        12.203054
6   -0.118019     1.012087  0.118472  -1.011090  4.534260e-04  9.974325e-04   0.039276  0.039276  0.039276    0.998545        0.003674  0.997626      0.035524         7.410632
7   -0.208049     1.005667  0.208309  -1.005095  2.601254e-04  5.722158e-04   0.039788  0.039788  0.039788    0.993449        0.080370  0.992958      0.101060         7.507251
8    0.744823     1.013011 -0.744047  -1.011609  7.760183e-04  1.402528e-03   0.048715  0.048715  0.048715    0.993449        0.080370  0.992193      0.070989        10.590202
9    0.015842     1.012916 -0.015512  -1.012190  3.300288e-04  7.259871e-04   0.039249  0.039249  0.039249    0.993449        0.080370  0.992732      0.098405         7.405480
10  -0.084535    -0.068956  0.090117   0.073309  5.582558e-03  4.352812e-03   0.157689  0.157689  0.157689    0.998546        0.003498  1.063328     -0.073298        68.560651
11  -0.018761    -0.245824  0.071334   0.286816  5.257263e-02  4.099174e-02   0.356366  0.356366  0.356366    0.998546        0.003498  1.197068     -9.598807       154.941740
12   0.096488    -0.009765 -0.091277   0.021229  5.211587e-03  1.146429e-02   0.140184  0.140184  0.140184    0.998546        0.003498  0.964896     -7.310788        26.449814
13  -0.139536     0.018206  0.146030  -0.006469  6.494031e-03  1.173692e-02   0.203406  0.203406  0.203406    0.998546        0.003498  1.037252      4.900659        44.218587
14  -0.007621     0.003073  0.007672  -0.002961  5.080114e-05  1.117508e-04   0.011939  0.011939  0.011939    0.993448        0.080293  0.994203      0.934796         2.252612
15  -0.012080    -0.031460  0.013072   0.032234  9.924056e-04  7.737950e-04   0.048962  0.048962  0.048962    0.993448        0.080293  1.025408     -0.988956        21.287918
16   0.028167    -0.161820 -0.004682   0.196188  2.348505e-02  3.436837e-02   0.238642  0.238642  0.238642    0.993448        0.080293  1.186939     -8.426834        70.188880
17   0.094823    -0.003662 -0.091713   0.009283  3.110350e-03  5.621459e-03   0.137871  0.137871  0.137871    0.993448        0.080293  0.965052     -3.488054        29.971906
18  -0.015878     0.059933  0.020331  -0.056461  4.452235e-03  3.471481e-03   0.090080  0.090080  0.090080    0.993448        0.080293  0.961555      5.044447        39.165141
--------------------------------------------------

TRAFO:
    p_hv_mw  q_hv_mvar       p_lv_mw     q_lv_mvar     pl_mw   ql_mvar   i_hv_ka       i_lv_ka  vm_hv_pu  va_hv_degree  vm_lv_pu  va_lv_degree  loading_percent
0 -0.146332  -0.305342  1.463436e-01  3.063390e-01  0.000011  0.000997  0.013052  4.907389e-01  0.998545      0.003674  0.998546      0.003498         3.399939
1  0.000010   0.001000  1.455184e-11 -3.876406e-17  0.000010  0.001000  0.000038  2.100388e-11  0.999995      0.000721  0.999995      0.000722         0.010000
2  0.087421  -0.132950 -8.741123e-02  1.339366e-01  0.000010  0.000987  0.006165  2.323712e-01  0.993449      0.080370  0.993448      0.080293         1.609915
3  0.000010   0.001000 -1.455183e-11  2.460624e-16  0.000010  0.001000  0.000038  2.100388e-11  0.999994      0.000779  0.999994      0.000780         0.010000
4  1.391872   4.727931 -1.391801e+00 -4.723931e+00  0.000071  0.004000  0.040650  1.895523e-01  1.000000      0.000000  0.999997      0.000677        12.321385
--------------------------------------------------
